[General]
network = ecommerce.EcommerceTrafficNet
sim-time-limit = 45s
**.gen.interval = 0.15s
